
#======================================================================
# CRYSTAL DATA
#----------------------------------------------------------------------
data_VESTA_phase_1

_chemical_name_common                  'Cu'
_cell_length_a                         17.909550
_cell_length_b                         17.909550
_cell_length_c                         17.909550
_cell_angle_alpha                      90.000000
_cell_angle_beta                       90.000000
_cell_angle_gamma                      90.000000
_cell_volume                           1.000000
_space_group_name_H-M_alt              'P 1'
_space_group_IT_number                 1

loop_
_space_group_symop_operation_xyz
   'x, y, z'

loop_
   _atom_site_label
   _atom_site_occupancy
   _atom_site_fract_x
   _atom_site_fract_y
   _atom_site_fract_z
   _atom_site_adp_type
   _atom_site_U_iso_or_equiv
   _atom_site_type_symbol
   Cu1        1.0     0.100000     0.100000     0.100000    Uiso  ? Cu
   Cu2        1.0     0.100000     0.100000     0.900000    Uiso  ? Cu
   Cu3        1.0     0.100000     0.900000     0.100000    Uiso  ? Cu
   Cu4        1.0     0.100000     0.900000     0.900000    Uiso  ? Cu
   Cu5        1.0     0.900000     0.100000     0.100000    Uiso  ? Cu
   Cu6        1.0     0.900000     0.100000     0.900000    Uiso  ? Cu
   Cu7        1.0     0.900000     0.900000     0.100000    Uiso  ? Cu
   Cu8        1.0     0.900000     0.900000     0.900000    Uiso  ? Cu
   Cu9        1.0     0.100000     0.200000     0.200000    Uiso  ? Cu
   Cu10       1.0     0.900000     0.200000     0.200000    Uiso  ? Cu
   Cu11       1.0     0.200000     0.100000     0.200000    Uiso  ? Cu
   Cu12       1.0     0.200000     0.900000     0.200000    Uiso  ? Cu
   Cu13       1.0     0.200000     0.200000     0.100000    Uiso  ? Cu
   Cu14       1.0     0.200000     0.200000     0.900000    Uiso  ? Cu
   Cu15       1.0     0.100000     0.100000     0.300000    Uiso  ? Cu
   Cu16       1.0     0.100000     0.900000     0.300000    Uiso  ? Cu
   Cu17       1.0     0.900000     0.100000     0.300000    Uiso  ? Cu
   Cu18       1.0     0.900000     0.900000     0.300000    Uiso  ? Cu
   Cu19       1.0     0.100000     0.100000     0.700000    Uiso  ? Cu
   Cu20       1.0     0.100000     0.900000     0.700000    Uiso  ? Cu
   Cu21       1.0     0.900000     0.100000     0.700000    Uiso  ? Cu
   Cu22       1.0     0.900000     0.900000     0.700000    Uiso  ? Cu
   Cu23       1.0     0.300000     0.100000     0.100000    Uiso  ? Cu
   Cu24       1.0     0.300000     0.100000     0.900000    Uiso  ? Cu
   Cu25       1.0     0.300000     0.900000     0.100000    Uiso  ? Cu
   Cu26       1.0     0.300000     0.900000     0.900000    Uiso  ? Cu
   Cu27       1.0     0.700000     0.100000     0.100000    Uiso  ? Cu
   Cu28       1.0     0.700000     0.100000     0.900000    Uiso  ? Cu
   Cu29       1.0     0.700000     0.900000     0.100000    Uiso  ? Cu
   Cu30       1.0     0.700000     0.900000     0.900000    Uiso  ? Cu
   Cu31       1.0     0.100000     0.300000     0.100000    Uiso  ? Cu
   Cu32       1.0     0.100000     0.300000     0.900000    Uiso  ? Cu
   Cu33       1.0     0.900000     0.300000     0.100000    Uiso  ? Cu
   Cu34       1.0     0.900000     0.300000     0.900000    Uiso  ? Cu
   Cu35       1.0     0.100000     0.700000     0.100000    Uiso  ? Cu
   Cu36       1.0     0.100000     0.700000     0.900000    Uiso  ? Cu
   Cu37       1.0     0.900000     0.700000     0.100000    Uiso  ? Cu
   Cu38       1.0     0.900000     0.700000     0.900000    Uiso  ? Cu
   Cu39       1.0     0.100000     0.200000     0.400000    Uiso  ? Cu
   Cu40       1.0     0.900000     0.200000     0.400000    Uiso  ? Cu
   Cu41       1.0     0.100000     0.200000     0.800000    Uiso  ? Cu
   Cu42       1.0     0.900000     0.200000     0.800000    Uiso  ? Cu
   Cu43       1.0     0.300000     0.200000     0.200000    Uiso  ? Cu
   Cu44       1.0     0.700000     0.200000     0.200000    Uiso  ? Cu
   Cu45       1.0     0.100000     0.400000     0.200000    Uiso  ? Cu
   Cu46       1.0     0.900000     0.400000     0.200000    Uiso  ? Cu
   Cu47       1.0     0.100000     0.800000     0.200000    Uiso  ? Cu
   Cu48       1.0     0.900000     0.800000     0.200000    Uiso  ? Cu
   Cu49       1.0     0.200000     0.100000     0.400000    Uiso  ? Cu
   Cu50       1.0     0.200000     0.900000     0.400000    Uiso  ? Cu
   Cu51       1.0     0.200000     0.100000     0.800000    Uiso  ? Cu
   Cu52       1.0     0.200000     0.900000     0.800000    Uiso  ? Cu
   Cu53       1.0     0.400000     0.100000     0.200000    Uiso  ? Cu
   Cu54       1.0     0.400000     0.900000     0.200000    Uiso  ? Cu
   Cu55       1.0     0.800000     0.100000     0.200000    Uiso  ? Cu
   Cu56       1.0     0.800000     0.900000     0.200000    Uiso  ? Cu
   Cu57       1.0     0.200000     0.300000     0.200000    Uiso  ? Cu
   Cu58       1.0     0.200000     0.700000     0.200000    Uiso  ? Cu
   Cu59       1.0     0.200000     0.200000     0.300000    Uiso  ? Cu
   Cu60       1.0     0.200000     0.200000     0.700000    Uiso  ? Cu
   Cu61       1.0     0.400000     0.200000     0.100000    Uiso  ? Cu
   Cu62       1.0     0.400000     0.200000     0.900000    Uiso  ? Cu
   Cu63       1.0     0.800000     0.200000     0.100000    Uiso  ? Cu
   Cu64       1.0     0.800000     0.200000     0.900000    Uiso  ? Cu
   Cu65       1.0     0.200000     0.400000     0.100000    Uiso  ? Cu
   Cu66       1.0     0.200000     0.400000     0.900000    Uiso  ? Cu
   Cu67       1.0     0.200000     0.800000     0.100000    Uiso  ? Cu
   Cu68       1.0     0.200000     0.800000     0.900000    Uiso  ? Cu
   Cu69       1.0     0.100000     0.100000     0.500000    Uiso  ? Cu
   Cu70       1.0     0.100000     0.900000     0.500000    Uiso  ? Cu
   Cu71       1.0     0.900000     0.100000     0.500000    Uiso  ? Cu
   Cu72       1.0     0.900000     0.900000     0.500000    Uiso  ? Cu
   Cu73       1.0     0.500000     0.100000     0.100000    Uiso  ? Cu
   Cu74       1.0     0.500000     0.100000     0.900000    Uiso  ? Cu
   Cu75       1.0     0.500000     0.900000     0.100000    Uiso  ? Cu
   Cu76       1.0     0.500000     0.900000     0.900000    Uiso  ? Cu
   Cu77       1.0     0.100000     0.500000     0.100000    Uiso  ? Cu
   Cu78       1.0     0.100000     0.500000     0.900000    Uiso  ? Cu
   Cu79       1.0     0.900000     0.500000     0.100000    Uiso  ? Cu
   Cu80       1.0     0.900000     0.500000     0.900000    Uiso  ? Cu
   Cu81       1.0     0.100000     0.200000     0.600000    Uiso  ? Cu
   Cu82       1.0     0.900000     0.200000     0.600000    Uiso  ? Cu
   Cu83       1.0     0.500000     0.200000     0.200000    Uiso  ? Cu
   Cu84       1.0     0.100000     0.600000     0.200000    Uiso  ? Cu
   Cu85       1.0     0.900000     0.600000     0.200000    Uiso  ? Cu
   Cu86       1.0     0.200000     0.100000     0.600000    Uiso  ? Cu
   Cu87       1.0     0.200000     0.900000     0.600000    Uiso  ? Cu
   Cu88       1.0     0.600000     0.100000     0.200000    Uiso  ? Cu
   Cu89       1.0     0.600000     0.900000     0.200000    Uiso  ? Cu
   Cu90       1.0     0.200000     0.500000     0.200000    Uiso  ? Cu
   Cu91       1.0     0.200000     0.200000     0.500000    Uiso  ? Cu
   Cu92       1.0     0.600000     0.200000     0.100000    Uiso  ? Cu
   Cu93       1.0     0.600000     0.200000     0.900000    Uiso  ? Cu
   Cu94       1.0     0.200000     0.600000     0.100000    Uiso  ? Cu
   Cu95       1.0     0.200000     0.600000     0.900000    Uiso  ? Cu
   Cu96       1.0     0.100000     0.300000     0.300000    Uiso  ? Cu
   Cu97       1.0     0.900000     0.300000     0.300000    Uiso  ? Cu
   Cu98       1.0     0.100000     0.700000     0.700000    Uiso  ? Cu
   Cu99       1.0     0.900000     0.700000     0.700000    Uiso  ? Cu
   Cu100      1.0     0.100000     0.700000     0.300000    Uiso  ? Cu
   Cu101      1.0     0.900000     0.700000     0.300000    Uiso  ? Cu
   Cu102      1.0     0.100000     0.300000     0.700000    Uiso  ? Cu
   Cu103      1.0     0.900000     0.300000     0.700000    Uiso  ? Cu
   Cu104      1.0     0.300000     0.100000     0.300000    Uiso  ? Cu
   Cu105      1.0     0.300000     0.900000     0.300000    Uiso  ? Cu
   Cu106      1.0     0.700000     0.100000     0.700000    Uiso  ? Cu
   Cu107      1.0     0.700000     0.900000     0.700000    Uiso  ? Cu
   Cu108      1.0     0.300000     0.100000     0.700000    Uiso  ? Cu
   Cu109      1.0     0.300000     0.900000     0.700000    Uiso  ? Cu
   Cu110      1.0     0.700000     0.100000     0.300000    Uiso  ? Cu
   Cu111      1.0     0.700000     0.900000     0.300000    Uiso  ? Cu
   Cu112      1.0     0.300000     0.300000     0.100000    Uiso  ? Cu
   Cu113      1.0     0.300000     0.300000     0.900000    Uiso  ? Cu
   Cu114      1.0     0.700000     0.700000     0.100000    Uiso  ? Cu
   Cu115      1.0     0.700000     0.700000     0.900000    Uiso  ? Cu
   Cu116      1.0     0.700000     0.300000     0.100000    Uiso  ? Cu
   Cu117      1.0     0.700000     0.300000     0.900000    Uiso  ? Cu
   Cu118      1.0     0.300000     0.700000     0.100000    Uiso  ? Cu
   Cu119      1.0     0.300000     0.700000     0.900000    Uiso  ? Cu
   Cu120      1.0     0.100000     0.400000     0.400000    Uiso  ? Cu
   Cu121      1.0     0.900000     0.400000     0.400000    Uiso  ? Cu
   Cu122      1.0     0.100000     0.800000     0.800000    Uiso  ? Cu
   Cu123      1.0     0.900000     0.800000     0.800000    Uiso  ? Cu
   Cu124      1.0     0.100000     0.800000     0.400000    Uiso  ? Cu
   Cu125      1.0     0.900000     0.800000     0.400000    Uiso  ? Cu
   Cu126      1.0     0.100000     0.400000     0.800000    Uiso  ? Cu
   Cu127      1.0     0.900000     0.400000     0.800000    Uiso  ? Cu
   Cu128      1.0     0.300000     0.200000     0.400000    Uiso  ? Cu
   Cu129      1.0     0.700000     0.200000     0.800000    Uiso  ? Cu
   Cu130      1.0     0.300000     0.200000     0.800000    Uiso  ? Cu
   Cu131      1.0     0.700000     0.200000     0.400000    Uiso  ? Cu
   Cu132      1.0     0.300000     0.400000     0.200000    Uiso  ? Cu
   Cu133      1.0     0.700000     0.800000     0.200000    Uiso  ? Cu
   Cu134      1.0     0.700000     0.400000     0.200000    Uiso  ? Cu
   Cu135      1.0     0.300000     0.800000     0.200000    Uiso  ? Cu
   Cu136      1.0     0.200000     0.300000     0.400000    Uiso  ? Cu
   Cu137      1.0     0.200000     0.700000     0.800000    Uiso  ? Cu
   Cu138      1.0     0.200000     0.700000     0.400000    Uiso  ? Cu
   Cu139      1.0     0.200000     0.300000     0.800000    Uiso  ? Cu
   Cu140      1.0     0.400000     0.100000     0.400000    Uiso  ? Cu
   Cu141      1.0     0.400000     0.900000     0.400000    Uiso  ? Cu
   Cu142      1.0     0.800000     0.100000     0.800000    Uiso  ? Cu
   Cu143      1.0     0.800000     0.900000     0.800000    Uiso  ? Cu
   Cu144      1.0     0.400000     0.100000     0.800000    Uiso  ? Cu
   Cu145      1.0     0.400000     0.900000     0.800000    Uiso  ? Cu
   Cu146      1.0     0.800000     0.100000     0.400000    Uiso  ? Cu
   Cu147      1.0     0.800000     0.900000     0.400000    Uiso  ? Cu
   Cu148      1.0     0.400000     0.300000     0.200000    Uiso  ? Cu
   Cu149      1.0     0.800000     0.700000     0.200000    Uiso  ? Cu
   Cu150      1.0     0.800000     0.300000     0.200000    Uiso  ? Cu
   Cu151      1.0     0.400000     0.700000     0.200000    Uiso  ? Cu
   Cu152      1.0     0.200000     0.400000     0.300000    Uiso  ? Cu
   Cu153      1.0     0.200000     0.800000     0.700000    Uiso  ? Cu
   Cu154      1.0     0.200000     0.800000     0.300000    Uiso  ? Cu
   Cu155      1.0     0.200000     0.400000     0.700000    Uiso  ? Cu
   Cu156      1.0     0.400000     0.200000     0.300000    Uiso  ? Cu
   Cu157      1.0     0.800000     0.200000     0.700000    Uiso  ? Cu
   Cu158      1.0     0.400000     0.200000     0.700000    Uiso  ? Cu
   Cu159      1.0     0.800000     0.200000     0.300000    Uiso  ? Cu
   Cu160      1.0     0.400000     0.400000     0.100000    Uiso  ? Cu
   Cu161      1.0     0.400000     0.400000     0.900000    Uiso  ? Cu
   Cu162      1.0     0.800000     0.800000     0.100000    Uiso  ? Cu
   Cu163      1.0     0.800000     0.800000     0.900000    Uiso  ? Cu
   Cu164      1.0     0.800000     0.400000     0.100000    Uiso  ? Cu
   Cu165      1.0     0.800000     0.400000     0.900000    Uiso  ? Cu
   Cu166      1.0     0.400000     0.800000     0.100000    Uiso  ? Cu
   Cu167      1.0     0.400000     0.800000     0.900000    Uiso  ? Cu
   Cu168      1.0     0.100000     0.300000     0.500000    Uiso  ? Cu
   Cu169      1.0     0.900000     0.300000     0.500000    Uiso  ? Cu
   Cu170      1.0     0.100000     0.700000     0.500000    Uiso  ? Cu
   Cu171      1.0     0.900000     0.700000     0.500000    Uiso  ? Cu
   Cu172      1.0     0.500000     0.100000     0.300000    Uiso  ? Cu
   Cu173      1.0     0.500000     0.900000     0.300000    Uiso  ? Cu
   Cu174      1.0     0.500000     0.100000     0.700000    Uiso  ? Cu
   Cu175      1.0     0.500000     0.900000     0.700000    Uiso  ? Cu
   Cu176      1.0     0.300000     0.500000     0.100000    Uiso  ? Cu
   Cu177      1.0     0.300000     0.500000     0.900000    Uiso  ? Cu
   Cu178      1.0     0.700000     0.500000     0.100000    Uiso  ? Cu
   Cu179      1.0     0.700000     0.500000     0.900000    Uiso  ? Cu
   Cu180      1.0     0.300000     0.100000     0.500000    Uiso  ? Cu
   Cu181      1.0     0.300000     0.900000     0.500000    Uiso  ? Cu
   Cu182      1.0     0.700000     0.100000     0.500000    Uiso  ? Cu
   Cu183      1.0     0.700000     0.900000     0.500000    Uiso  ? Cu
   Cu184      1.0     0.100000     0.500000     0.700000    Uiso  ? Cu
   Cu185      1.0     0.900000     0.500000     0.700000    Uiso  ? Cu
   Cu186      1.0     0.100000     0.500000     0.300000    Uiso  ? Cu
   Cu187      1.0     0.900000     0.500000     0.300000    Uiso  ? Cu
   Cu188      1.0     0.500000     0.300000     0.100000    Uiso  ? Cu
   Cu189      1.0     0.500000     0.300000     0.900000    Uiso  ? Cu
   Cu190      1.0     0.500000     0.700000     0.100000    Uiso  ? Cu
   Cu191      1.0     0.500000     0.700000     0.900000    Uiso  ? Cu
   Cu192      1.0     0.100000     0.400000     0.600000    Uiso  ? Cu
   Cu193      1.0     0.900000     0.400000     0.600000    Uiso  ? Cu
   Cu194      1.0     0.100000     0.800000     0.600000    Uiso  ? Cu
   Cu195      1.0     0.900000     0.800000     0.600000    Uiso  ? Cu
   Cu196      1.0     0.500000     0.200000     0.400000    Uiso  ? Cu
   Cu197      1.0     0.500000     0.200000     0.800000    Uiso  ? Cu
   Cu198      1.0     0.300000     0.600000     0.200000    Uiso  ? Cu
   Cu199      1.0     0.700000     0.600000     0.200000    Uiso  ? Cu
   Cu200      1.0     0.300000     0.200000     0.600000    Uiso  ? Cu
   Cu201      1.0     0.700000     0.200000     0.600000    Uiso  ? Cu
   Cu202      1.0     0.100000     0.600000     0.800000    Uiso  ? Cu
   Cu203      1.0     0.900000     0.600000     0.800000    Uiso  ? Cu
   Cu204      1.0     0.100000     0.600000     0.400000    Uiso  ? Cu
   Cu205      1.0     0.900000     0.600000     0.400000    Uiso  ? Cu
   Cu206      1.0     0.500000     0.400000     0.200000    Uiso  ? Cu
   Cu207      1.0     0.500000     0.800000     0.200000    Uiso  ? Cu
   Cu208      1.0     0.200000     0.300000     0.600000    Uiso  ? Cu
   Cu209      1.0     0.200000     0.700000     0.600000    Uiso  ? Cu
   Cu210      1.0     0.600000     0.100000     0.400000    Uiso  ? Cu
   Cu211      1.0     0.600000     0.900000     0.400000    Uiso  ? Cu
   Cu212      1.0     0.600000     0.100000     0.800000    Uiso  ? Cu
   Cu213      1.0     0.600000     0.900000     0.800000    Uiso  ? Cu
   Cu214      1.0     0.400000     0.500000     0.200000    Uiso  ? Cu
   Cu215      1.0     0.800000     0.500000     0.200000    Uiso  ? Cu
   Cu216      1.0     0.400000     0.100000     0.600000    Uiso  ? Cu
   Cu217      1.0     0.400000     0.900000     0.600000    Uiso  ? Cu
   Cu218      1.0     0.800000     0.100000     0.600000    Uiso  ? Cu
   Cu219      1.0     0.800000     0.900000     0.600000    Uiso  ? Cu
   Cu220      1.0     0.200000     0.500000     0.800000    Uiso  ? Cu
   Cu221      1.0     0.200000     0.500000     0.400000    Uiso  ? Cu
   Cu222      1.0     0.600000     0.300000     0.200000    Uiso  ? Cu
   Cu223      1.0     0.600000     0.700000     0.200000    Uiso  ? Cu
   Cu224      1.0     0.200000     0.400000     0.500000    Uiso  ? Cu
   Cu225      1.0     0.200000     0.800000     0.500000    Uiso  ? Cu
   Cu226      1.0     0.600000     0.200000     0.300000    Uiso  ? Cu
   Cu227      1.0     0.600000     0.200000     0.700000    Uiso  ? Cu
   Cu228      1.0     0.400000     0.600000     0.100000    Uiso  ? Cu
   Cu229      1.0     0.400000     0.600000     0.900000    Uiso  ? Cu
   Cu230      1.0     0.800000     0.600000     0.100000    Uiso  ? Cu
   Cu231      1.0     0.800000     0.600000     0.900000    Uiso  ? Cu
   Cu232      1.0     0.400000     0.200000     0.500000    Uiso  ? Cu
   Cu233      1.0     0.800000     0.200000     0.500000    Uiso  ? Cu
   Cu234      1.0     0.200000     0.600000     0.700000    Uiso  ? Cu
   Cu235      1.0     0.200000     0.600000     0.300000    Uiso  ? Cu
   Cu236      1.0     0.600000     0.400000     0.100000    Uiso  ? Cu
   Cu237      1.0     0.600000     0.400000     0.900000    Uiso  ? Cu
   Cu238      1.0     0.600000     0.800000     0.100000    Uiso  ? Cu
   Cu239      1.0     0.600000     0.800000     0.900000    Uiso  ? Cu
   Cu240      1.0     0.100000     0.500000     0.500000    Uiso  ? Cu
   Cu241      1.0     0.900000     0.500000     0.500000    Uiso  ? Cu
   Cu242      1.0     0.500000     0.100000     0.500000    Uiso  ? Cu
   Cu243      1.0     0.500000     0.900000     0.500000    Uiso  ? Cu
   Cu244      1.0     0.500000     0.500000     0.100000    Uiso  ? Cu
   Cu245      1.0     0.500000     0.500000     0.900000    Uiso  ? Cu
   Cu246      1.0     0.100000     0.600000     0.600000    Uiso  ? Cu
   Cu247      1.0     0.900000     0.600000     0.600000    Uiso  ? Cu
   Cu248      1.0     0.500000     0.200000     0.600000    Uiso  ? Cu
   Cu249      1.0     0.500000     0.600000     0.200000    Uiso  ? Cu
   Cu250      1.0     0.200000     0.500000     0.600000    Uiso  ? Cu
   Cu251      1.0     0.600000     0.100000     0.600000    Uiso  ? Cu
   Cu252      1.0     0.600000     0.900000     0.600000    Uiso  ? Cu
   Cu253      1.0     0.600000     0.500000     0.200000    Uiso  ? Cu
   Cu254      1.0     0.200000     0.600000     0.500000    Uiso  ? Cu
   Cu255      1.0     0.600000     0.200000     0.500000    Uiso  ? Cu
   Cu256      1.0     0.600000     0.600000     0.100000    Uiso  ? Cu
   Cu257      1.0     0.600000     0.600000     0.900000    Uiso  ? Cu
   Cu258      1.0     0.300000     0.300000     0.300000    Uiso  ? Cu
   Cu259      1.0     0.700000     0.700000     0.700000    Uiso  ? Cu
   Cu260      1.0     0.700000     0.700000     0.300000    Uiso  ? Cu
   Cu261      1.0     0.300000     0.300000     0.700000    Uiso  ? Cu
   Cu262      1.0     0.700000     0.300000     0.700000    Uiso  ? Cu
   Cu263      1.0     0.300000     0.700000     0.300000    Uiso  ? Cu
   Cu264      1.0     0.300000     0.700000     0.700000    Uiso  ? Cu
   Cu265      1.0     0.700000     0.300000     0.300000    Uiso  ? Cu
   Cu266      1.0     0.300000     0.400000     0.400000    Uiso  ? Cu
   Cu267      1.0     0.700000     0.800000     0.800000    Uiso  ? Cu
   Cu268      1.0     0.700000     0.800000     0.400000    Uiso  ? Cu
   Cu269      1.0     0.300000     0.400000     0.800000    Uiso  ? Cu
   Cu270      1.0     0.700000     0.400000     0.800000    Uiso  ? Cu
   Cu271      1.0     0.300000     0.800000     0.400000    Uiso  ? Cu
   Cu272      1.0     0.300000     0.800000     0.800000    Uiso  ? Cu
   Cu273      1.0     0.700000     0.400000     0.400000    Uiso  ? Cu
   Cu274      1.0     0.400000     0.300000     0.400000    Uiso  ? Cu
   Cu275      1.0     0.800000     0.700000     0.800000    Uiso  ? Cu
   Cu276      1.0     0.800000     0.700000     0.400000    Uiso  ? Cu
   Cu277      1.0     0.400000     0.300000     0.800000    Uiso  ? Cu
   Cu278      1.0     0.800000     0.300000     0.800000    Uiso  ? Cu
   Cu279      1.0     0.400000     0.700000     0.400000    Uiso  ? Cu
   Cu280      1.0     0.400000     0.700000     0.800000    Uiso  ? Cu
   Cu281      1.0     0.800000     0.300000     0.400000    Uiso  ? Cu
   Cu282      1.0     0.400000     0.400000     0.300000    Uiso  ? Cu
   Cu283      1.0     0.800000     0.800000     0.700000    Uiso  ? Cu
   Cu284      1.0     0.800000     0.800000     0.300000    Uiso  ? Cu
   Cu285      1.0     0.400000     0.400000     0.700000    Uiso  ? Cu
   Cu286      1.0     0.800000     0.400000     0.700000    Uiso  ? Cu
   Cu287      1.0     0.400000     0.800000     0.300000    Uiso  ? Cu
   Cu288      1.0     0.400000     0.800000     0.700000    Uiso  ? Cu
   Cu289      1.0     0.800000     0.400000     0.300000    Uiso  ? Cu
   Cu290      1.0     0.300000     0.300000     0.500000    Uiso  ? Cu
   Cu291      1.0     0.700000     0.700000     0.500000    Uiso  ? Cu
   Cu292      1.0     0.700000     0.300000     0.500000    Uiso  ? Cu
   Cu293      1.0     0.300000     0.700000     0.500000    Uiso  ? Cu
   Cu294      1.0     0.500000     0.300000     0.300000    Uiso  ? Cu
   Cu295      1.0     0.500000     0.700000     0.700000    Uiso  ? Cu
   Cu296      1.0     0.500000     0.700000     0.300000    Uiso  ? Cu
   Cu297      1.0     0.500000     0.300000     0.700000    Uiso  ? Cu
   Cu298      1.0     0.300000     0.500000     0.300000    Uiso  ? Cu
   Cu299      1.0     0.700000     0.500000     0.700000    Uiso  ? Cu
   Cu300      1.0     0.300000     0.500000     0.700000    Uiso  ? Cu
   Cu301      1.0     0.700000     0.500000     0.300000    Uiso  ? Cu
   Cu302      1.0     0.300000     0.400000     0.600000    Uiso  ? Cu
   Cu303      1.0     0.700000     0.800000     0.600000    Uiso  ? Cu
   Cu304      1.0     0.700000     0.400000     0.600000    Uiso  ? Cu
   Cu305      1.0     0.300000     0.800000     0.600000    Uiso  ? Cu
   Cu306      1.0     0.500000     0.400000     0.400000    Uiso  ? Cu
   Cu307      1.0     0.500000     0.800000     0.800000    Uiso  ? Cu
   Cu308      1.0     0.500000     0.800000     0.400000    Uiso  ? Cu
   Cu309      1.0     0.500000     0.400000     0.800000    Uiso  ? Cu
   Cu310      1.0     0.300000     0.600000     0.400000    Uiso  ? Cu
   Cu311      1.0     0.700000     0.600000     0.800000    Uiso  ? Cu
   Cu312      1.0     0.300000     0.600000     0.800000    Uiso  ? Cu
   Cu313      1.0     0.700000     0.600000     0.400000    Uiso  ? Cu
   Cu314      1.0     0.400000     0.300000     0.600000    Uiso  ? Cu
   Cu315      1.0     0.800000     0.700000     0.600000    Uiso  ? Cu
   Cu316      1.0     0.800000     0.300000     0.600000    Uiso  ? Cu
   Cu317      1.0     0.400000     0.700000     0.600000    Uiso  ? Cu
   Cu318      1.0     0.600000     0.300000     0.400000    Uiso  ? Cu
   Cu319      1.0     0.600000     0.700000     0.800000    Uiso  ? Cu
   Cu320      1.0     0.600000     0.700000     0.400000    Uiso  ? Cu
   Cu321      1.0     0.600000     0.300000     0.800000    Uiso  ? Cu
   Cu322      1.0     0.400000     0.500000     0.400000    Uiso  ? Cu
   Cu323      1.0     0.800000     0.500000     0.800000    Uiso  ? Cu
   Cu324      1.0     0.400000     0.500000     0.800000    Uiso  ? Cu
   Cu325      1.0     0.800000     0.500000     0.400000    Uiso  ? Cu
   Cu326      1.0     0.400000     0.400000     0.500000    Uiso  ? Cu
   Cu327      1.0     0.800000     0.800000     0.500000    Uiso  ? Cu
   Cu328      1.0     0.800000     0.400000     0.500000    Uiso  ? Cu
   Cu329      1.0     0.400000     0.800000     0.500000    Uiso  ? Cu
   Cu330      1.0     0.600000     0.400000     0.300000    Uiso  ? Cu
   Cu331      1.0     0.600000     0.800000     0.700000    Uiso  ? Cu
   Cu332      1.0     0.600000     0.800000     0.300000    Uiso  ? Cu
   Cu333      1.0     0.600000     0.400000     0.700000    Uiso  ? Cu
   Cu334      1.0     0.400000     0.600000     0.300000    Uiso  ? Cu
   Cu335      1.0     0.800000     0.600000     0.700000    Uiso  ? Cu
   Cu336      1.0     0.400000     0.600000     0.700000    Uiso  ? Cu
   Cu337      1.0     0.800000     0.600000     0.300000    Uiso  ? Cu
   Cu338      1.0     0.300000     0.500000     0.500000    Uiso  ? Cu
   Cu339      1.0     0.700000     0.500000     0.500000    Uiso  ? Cu
   Cu340      1.0     0.500000     0.300000     0.500000    Uiso  ? Cu
   Cu341      1.0     0.500000     0.700000     0.500000    Uiso  ? Cu
   Cu342      1.0     0.500000     0.500000     0.300000    Uiso  ? Cu
   Cu343      1.0     0.500000     0.500000     0.700000    Uiso  ? Cu
   Cu344      1.0     0.300000     0.600000     0.600000    Uiso  ? Cu
   Cu345      1.0     0.700000     0.600000     0.600000    Uiso  ? Cu
   Cu346      1.0     0.500000     0.400000     0.600000    Uiso  ? Cu
   Cu347      1.0     0.500000     0.800000     0.600000    Uiso  ? Cu
   Cu348      1.0     0.500000     0.600000     0.400000    Uiso  ? Cu
   Cu349      1.0     0.500000     0.600000     0.800000    Uiso  ? Cu
   Cu350      1.0     0.400000     0.500000     0.600000    Uiso  ? Cu
   Cu351      1.0     0.800000     0.500000     0.600000    Uiso  ? Cu
   Cu352      1.0     0.600000     0.300000     0.600000    Uiso  ? Cu
   Cu353      1.0     0.600000     0.700000     0.600000    Uiso  ? Cu
   Cu354      1.0     0.600000     0.500000     0.400000    Uiso  ? Cu
   Cu355      1.0     0.600000     0.500000     0.800000    Uiso  ? Cu
   Cu356      1.0     0.400000     0.600000     0.500000    Uiso  ? Cu
   Cu357      1.0     0.800000     0.600000     0.500000    Uiso  ? Cu
   Cu358      1.0     0.600000     0.400000     0.500000    Uiso  ? Cu
   Cu359      1.0     0.600000     0.800000     0.500000    Uiso  ? Cu
   Cu360      1.0     0.600000     0.600000     0.300000    Uiso  ? Cu
   Cu361      1.0     0.600000     0.600000     0.700000    Uiso  ? Cu
   Cu362      1.0     0.500000     0.500000     0.500000    Uiso  ? Cu
   Cu363      1.0     0.500000     0.600000     0.600000    Uiso  ? Cu
   Cu364      1.0     0.600000     0.500000     0.600000    Uiso  ? Cu
   Cu365      1.0     0.600000     0.600000     0.500000    Uiso  ? Cu
